<routes>
   <vType id="autonomous" type="passenger" length="4.3" width="1.8" accel="3.5" decel="2.2" sigma="1.0"
          imgFile="C:\Users\Felix\Masterarbeit\Coding\models\sumo_car_model.png"/>
   <vType id="sumo_car" type="passenger" length="4.3" width="1.8" maxSpeed="11.2" departPos="150"/>
   <vType id="bike" departLane="2" type="bicycle" length="1.6" width=".65" accel="1.2" decel="3" maxSpeed="3"
          sigma="0.5" guiShape="bicycle" departPos="81"/>

   <flow id="crossing_flow1" type="sumo_car" from="gneE37" to="gneE45" beg="0" end="1" number="4"/>
<!--   <flow id="crossing_flow2" type="sumo_car" from="-gneE45" to="gneE38" beg="0" end="1" number="4"/>-->


   <route id="bike_route" color="1,0,0" edges="J_in gneE40 gneE44"/>
   <vehicle route="bike_route" id="bike" type="bike" from="J_in" to="gneE44" beg="0" end="1" number="1" depart="0"
   departPos="45"/>
</routes>