<?xml version="1.0" encoding="UTF-8"?>

<!-- generated on 11/12/19 15:33:53 by Eclipse SUMO netconvert Version 1.3.1
<configuration xmlns:xsi="http://www.w3.org/2001/XMLSchema-instance" xsi:noNamespaceSchemaLocation="http://sumo.dlr.de/xsd/netconvertConfiguration.xsd">

    <input>
        <osm-files value="map.osm"/>
    </input>

    <output>
        <output-file value="map.net.xml"/>
        <output.street-names value="true"/>
    </output>

    <projection>
        <proj.utm value="true"/>
    </projection>

    <processing>
        <lefthand value="true"/>
    </processing>

</configuration>
-->

<net version="1.3" junctionCornerDetail="5" lefthand="true" limitTurnSpeed="5.50" xmlns:xsi="http://www.w3.org/2001/XMLSchema-instance" xsi:noNamespaceSchemaLocation="http://sumo.dlr.de/xsd/net_file.xsd">

    <location netOffset="-688551.74,-5333535.08" convBoundary="0.00,-0.00,2091.11,1437.80" origBoundary="11.522261,48.121436,11.562693,48.139697" projParameter="+proj=utm +zone=32 +ellps=WGS84 +datum=WGS84 +units=m +no_defs"/>

    <type id="highway.bridleway" priority="1" numLanes="1" speed="2.78" allow="pedestrian" oneway="1" width="2.00"/>
    <type id="highway.bus_guideway" priority="1" numLanes="1" speed="27.78" allow="bus" oneway="1"/>
    <type id="highway.cycleway" priority="1" numLanes="1" speed="8.33" allow="bicycle" oneway="0" width="1.00"/>
    <type id="highway.footway" priority="1" numLanes="1" speed="2.78" allow="pedestrian" oneway="1" width="2.00"/>
    <type id="highway.ford" priority="1" numLanes="1" speed="2.78" allow="army" oneway="0"/>
    <type id="highway.living_street" priority="2" numLanes="1" speed="2.78" disallow="tram rail_urban rail rail_electric rail_fast ship" oneway="0"/>
    <type id="highway.motorway" priority="14" numLanes="2" speed="39.44" allow="private emergency authority army vip passenger hov taxi bus coach delivery truck trailer motorcycle evehicle custom1 custom2" oneway="1"/>
    <type id="highway.motorway_link" priority="9" numLanes="1" speed="22.22" allow="private emergency authority army vip passenger hov taxi bus coach delivery truck trailer motorcycle evehicle custom1 custom2" oneway="1"/>
    <type id="highway.path" priority="1" numLanes="1" speed="2.78" allow="pedestrian bicycle" oneway="1" width="2.00"/>
    <type id="highway.pedestrian" priority="1" numLanes="1" speed="2.78" allow="pedestrian" oneway="1" width="2.00"/>
    <type id="highway.primary" priority="12" numLanes="2" speed="27.78" disallow="tram rail_urban rail rail_electric rail_fast ship" oneway="0"/>
    <type id="highway.primary_link" priority="7" numLanes="1" speed="22.22" disallow="tram rail_urban rail rail_electric rail_fast ship" oneway="0"/>
    <type id="highway.raceway" priority="15" numLanes="2" speed="83.33" allow="vip" oneway="0"/>
    <type id="highway.residential" priority="3" numLanes="1" speed="13.89" disallow="tram rail_urban rail rail_electric rail_fast ship" oneway="0"/>
    <type id="highway.secondary" priority="11" numLanes="2" speed="27.78" disallow="tram rail_urban rail rail_electric rail_fast ship" oneway="0"/>
    <type id="highway.secondary_link" priority="6" numLanes="1" speed="22.22" disallow="tram rail_urban rail rail_electric rail_fast ship" oneway="0"/>
    <type id="highway.service" priority="1" numLanes="1" speed="5.56" allow="pedestrian delivery bicycle" oneway="0"/>
    <type id="highway.stairs" priority="1" numLanes="1" speed="1.39" allow="pedestrian" oneway="1" width="2.00"/>
    <type id="highway.step" priority="1" numLanes="1" speed="1.39" allow="pedestrian" oneway="1" width="2.00"/>
    <type id="highway.steps" priority="1" numLanes="1" speed="1.39" allow="pedestrian" oneway="1" width="2.00"/>
    <type id="highway.tertiary" priority="10" numLanes="1" speed="22.22" disallow="tram rail_urban rail rail_electric rail_fast ship" oneway="0"/>
    <type id="highway.tertiary_link" priority="5" numLanes="1" speed="22.22" disallow="tram rail_urban rail rail_electric rail_fast ship" oneway="0"/>
    <type id="highway.track" priority="1" numLanes="1" speed="5.56" disallow="tram rail_urban rail rail_electric rail_fast ship" oneway="0"/>
    <type id="highway.trunk" priority="13" numLanes="2" speed="27.78" disallow="pedestrian bicycle tram rail_urban rail rail_electric rail_fast ship" oneway="0"/>
    <type id="highway.trunk_link" priority="8" numLanes="1" speed="22.22" disallow="pedestrian bicycle tram rail_urban rail rail_electric rail_fast ship" oneway="0"/>
    <type id="highway.unclassified" priority="4" numLanes="1" speed="13.89" disallow="tram rail_urban rail rail_electric rail_fast ship" oneway="0"/>
    <type id="highway.unsurfaced" priority="1" numLanes="1" speed="8.33" disallow="tram rail_urban rail rail_electric rail_fast ship" oneway="0"/>
    <type id="railway.highspeed" priority="21" numLanes="1" speed="69.44" allow="rail_fast" oneway="1"/>
    <type id="railway.light_rail" priority="19" numLanes="1" speed="27.78" allow="rail_urban" oneway="1"/>
    <type id="railway.preserved" priority="16" numLanes="1" speed="27.78" allow="rail" oneway="1"/>
    <type id="railway.rail" priority="20" numLanes="1" speed="44.44" allow="rail" oneway="1"/>
    <type id="railway.subway" priority="18" numLanes="1" speed="27.78" allow="rail_urban" oneway="1"/>
    <type id="railway.tram" priority="17" numLanes="1" speed="13.89" allow="tram" oneway="1"/>

    <edge id=":1029952459_0" function="internal">
        <lane id=":1029952459_0_0" index="0" allow="pedestrian bicycle" speed="2.78" length="5.04" width="2.00" shape="719.32,776.01 714.74,773.90"/>
    </edge>
    <edge id=":1029952567_0" function="internal">
        <lane id=":1029952567_0_0" index="0" disallow="tram rail_urban rail rail_electric rail_fast ship" speed="8.33" length="5.00" shape="697.68,861.32 692.70,860.82"/>
    </edge>
    <edge id=":1029952567_1" function="internal">
        <lane id=":1029952567_1_0" index="0" disallow="tram rail_urban rail rail_electric rail_fast ship" speed="3.65" length="4.67" shape="697.68,861.32 696.40,861.99 695.92,862.75 696.24,863.59 697.35,864.50"/>
    </edge>
    <edge id=":1029952567_2" function="internal">
        <lane id=":1029952567_2_0" index="0" disallow="tram rail_urban rail rail_electric rail_fast ship" speed="8.33" length="5.00" shape="692.38,864.00 697.35,864.50"/>
    </edge>
    <edge id=":1029952567_3" function="internal">
        <lane id=":1029952567_3_0" index="0" disallow="tram rail_urban rail rail_electric rail_fast ship" speed="3.65" length="4.67" shape="692.38,864.00 693.66,863.32 694.13,862.57 693.82,861.73 692.70,860.82"/>
    </edge>
    <edge id=":1099934753_0" function="internal">
        <lane id=":1099934753_0_0" index="0" allow="tram" speed="13.89" length="0.37" shape="1125.90,1343.17 1125.83,1343.26 1125.78,1343.31 1125.73,1343.37 1125.64,1343.44"/>
    </edge>
    <edge id=":1099934849_0" function="internal">
        <lane id=":1099934849_0_0" index="0" disallow="tram rail_urban rail rail_electric rail_fast ship" speed="13.89" length="0.28" shape="1136.01,1345.71 1136.00,1345.95"/>
        <lane id=":1099934849_0_1" index="1" disallow="tram rail_urban rail rail_electric rail_fast ship" speed="13.89" length="0.28" shape="1139.21,1345.86 1139.19,1346.17"/>
    </edge>
    <edge id=":1099934871_0" function="internal">
        <lane id=":1099934871_0_0" index="0" allow="bicycle" speed="8.33" length="9.01" width="1.00" shape="1143.82,1211.89 1134.92,1210.45"/>
    </edge>
    <edge id=":1099934871_1" function="internal">
        <lane id=":1099934871_1_0" index="0" disallow="tram rail_urban rail rail_electric rail_fast ship" speed="4.74" length="4.27" shape="1143.82,1211.89 1142.08,1211.80 1140.85,1212.25 1140.14,1213.24"/>
    </edge>
    <edge id=":1099934871_2" function="internal">
        <lane id=":1099934871_2_0" index="0" allow="bicycle" speed="2.04" length="0.73" width="1.00" shape="1143.82,1211.89 1143.41,1212.07 1143.24,1212.29"/>
    </edge>
    <edge id=":1099934871_10" function="internal">
        <lane id=":1099934871_10_0" index="0" disallow="tram rail_urban rail rail_electric rail_fast ship" speed="4.74" length="1.55" shape="1140.14,1213.24 1139.94,1214.78"/>
    </edge>
    <edge id=":1099934871_11" function="internal">
        <lane id=":1099934871_11_0" index="0" allow="bicycle" speed="2.04" length="0.73" width="1.00" shape="1143.24,1212.29 1143.32,1212.56 1143.64,1212.87"/>
    </edge>
    <edge id=":1099934871_3" function="internal">
        <lane id=":1099934871_3_0" index="0" disallow="tram rail_urban rail rail_electric rail_fast ship" speed="4.71" length="4.30" shape="1134.78,1211.44 1135.60,1211.76 1136.20,1212.43 1136.58,1213.47 1136.74,1214.88"/>
    </edge>
    <edge id=":1099934871_4" function="internal">
        <lane id=":1099934871_4_0" index="0" allow="bicycle" speed="8.33" length="8.98" width="1.00" shape="1134.78,1211.44 1143.64,1212.87"/>
    </edge>
    <edge id=":1099934871_5" function="internal">
        <lane id=":1099934871_5_0" index="0" allow="bicycle" speed="2.04" length="0.73" width="1.00" shape="1134.78,1211.44 1135.19,1211.25 1135.35,1211.02"/>
    </edge>
    <edge id=":1099934871_12" function="internal">
        <lane id=":1099934871_12_0" index="0" allow="bicycle" speed="2.04" length="0.73" width="1.00" shape="1135.35,1211.02 1135.26,1210.75 1134.92,1210.45"/>
    </edge>
    <edge id=":1099934871_6" function="internal">
        <lane id=":1099934871_6_0" index="0" allow="bicycle" speed="5.20" length="6.12" width="1.00" shape="1136.42,1204.98 1136.40,1207.47 1136.14,1209.21 1135.65,1210.20 1134.92,1210.45"/>
    </edge>
    <edge id=":1099934871_7" function="internal">
        <lane id=":1099934871_7_0" index="0" disallow="tram rail_urban rail rail_electric rail_fast ship" speed="13.89" length="9.90" shape="1137.52,1204.95 1137.84,1214.84"/>
        <lane id=":1099934871_7_1" index="1" disallow="tram rail_urban rail rail_electric rail_fast ship" speed="13.89" length="9.90" shape="1140.72,1204.85 1141.04,1214.74"/>
    </edge>
    <edge id=":1099934871_9" function="internal">
        <lane id=":1099934871_9_0" index="0" allow="bicycle" speed="6.86" length="8.51" width="1.00" shape="1141.82,1204.81 1142.03,1208.23 1142.40,1210.72 1142.94,1212.26 1143.64,1212.87"/>
    </edge>
    <edge id=":1134202987_0" function="internal">
        <lane id=":1134202987_0_0" index="0" disallow="tram rail_urban rail rail_electric rail_fast ship" speed="13.89" length="13.06" shape="1132.22,1027.41 1128.80,1028.76 1127.03,1031.17 1125.26,1033.59 1121.84,1034.95"/>
        <lane id=":1134202987_0_1" index="1" disallow="tram rail_urban rail rail_electric rail_fast ship" speed="13.89" length="13.06" shape="1132.53,1030.60 1129.29,1031.92 1127.67,1034.32 1126.05,1036.72 1122.82,1038.07"/>
    </edge>
    <edge id=":1134202987_2" function="internal">
        <lane id=":1134202987_2_0" index="0" disallow="tram rail_urban rail rail_electric rail_fast ship" speed="3.65" length="1.70" shape="1132.53,1030.60 1131.41,1031.51 1131.31,1031.75"/>
    </edge>
    <edge id=":1134202987_5" function="internal">
        <lane id=":1134202987_5_0" index="0" disallow="tram rail_urban rail rail_electric rail_fast ship" speed="3.65" length="2.97" shape="1131.31,1031.75 1131.09,1032.34 1131.56,1033.10 1132.83,1033.78"/>
    </edge>
    <edge id=":1134202987_3" function="internal">
        <lane id=":1134202987_3_0" index="0" disallow="tram rail_urban rail rail_electric rail_fast ship" speed="13.89" length="12.06" shape="1123.26,1030.58 1126.46,1031.74 1128.21,1034.06 1129.95,1036.23 1133.14,1036.97"/>
        <lane id=":1134202987_3_1" index="1" disallow="tram rail_urban rail rail_electric rail_fast ship" speed="13.89" length="12.06" shape="1123.73,1027.40 1126.72,1028.55 1128.29,1030.86 1129.86,1033.03 1132.83,1033.78"/>
    </edge>
    <edge id=":1134202993_0" function="internal">
        <lane id=":1134202993_0_0" index="0" allow="pedestrian delivery bicycle" speed="5.18" length="5.16" shape="950.21,1213.28 948.86,1213.16 947.85,1212.61 947.18,1211.62 946.84,1210.20"/>
    </edge>
    <edge id=":1134202993_1" function="internal">
        <lane id=":1134202993_1_0" index="0" disallow="tram rail_urban rail rail_electric rail_fast ship" speed="8.33" length="9.40" shape="950.21,1213.28 940.83,1213.88"/>
    </edge>
    <edge id=":1134202993_2" function="internal">
        <lane id=":1134202993_2_0" index="0" disallow="tram rail_urban rail rail_electric rail_fast ship" speed="3.65" length="2.34" shape="950.21,1213.28 949.06,1214.16 948.71,1214.98"/>
    </edge>
    <edge id=":1134202993_9" function="internal">
        <lane id=":1134202993_9_0" index="0" disallow="tram rail_urban rail rail_electric rail_fast ship" speed="3.65" length="2.34" shape="948.71,1214.98 949.16,1215.75 950.41,1216.48"/>
    </edge>
    <edge id=":1134202993_3" function="internal">
        <lane id=":1134202993_3_0" index="0" disallow="tram rail_urban rail rail_electric rail_fast ship" speed="8.33" length="9.39" shape="941.04,1217.08 950.41,1216.48"/>
    </edge>
    <edge id=":1134202993_4" function="internal">
        <lane id=":1134202993_4_0" index="0" allow="pedestrian delivery bicycle" speed="6.83" length="5.18" shape="941.04,1217.08 943.83,1216.49 945.73,1215.15"/>
    </edge>
    <edge id=":1134202993_5" function="internal">
        <lane id=":1134202993_5_0" index="0" disallow="tram rail_urban rail rail_electric rail_fast ship" speed="3.65" length="2.34" shape="941.04,1217.08 942.18,1216.20 942.53,1215.38"/>
    </edge>
    <edge id=":1134202993_10" function="internal">
        <lane id=":1134202993_10_0" index="0" allow="pedestrian delivery bicycle" speed="6.83" length="5.18" shape="945.73,1215.15 946.73,1213.05 946.84,1210.20"/>
    </edge>
    <edge id=":1134202993_11" function="internal">
        <lane id=":1134202993_11_0" index="0" disallow="tram rail_urban rail rail_electric rail_fast ship" speed="3.65" length="2.34" shape="942.53,1215.38 942.08,1214.60 940.83,1213.88"/>
    </edge>
    <edge id=":1134202993_6" function="internal">
        <lane id=":1134202993_6_0" index="0" disallow="tram rail_urban rail rail_electric rail_fast ship" speed="5.00" length="5.05" shape="943.65,1210.53 943.60,1211.92 943.11,1212.94 942.19,1213.60 940.83,1213.88"/>
    </edge>
    <edge id=":1134202993_7" function="internal">
        <lane id=":1134202993_7_0" index="0" disallow="tram rail_urban rail rail_electric rail_fast ship" speed="6.95" length="10.17" shape="943.65,1210.53 944.33,1213.28 945.68,1215.18 947.70,1216.25 950.41,1216.48"/>
    </edge>
    <edge id=":1134202993_8" function="internal">
        <lane id=":1134202993_8_0" index="0" allow="pedestrian delivery bicycle" speed="3.65" length="4.67" shape="943.65,1210.53 944.58,1211.64 945.41,1211.96 946.17,1211.47 946.84,1210.20"/>
    </edge>
    <edge id=":1134203039_0" function="internal">
        <lane id=":1134203039_0_0" index="0" disallow="tram rail_urban rail rail_electric rail_fast ship" speed="13.89" length="0.28" shape="1127.04,1098.30 1127.06,1098.34 1127.07,1098.36 1127.08,1098.39 1127.09,1098.43"/>
        <lane id=":1134203039_0_1" index="1" disallow="tram rail_urban rail rail_electric rail_fast ship" speed="13.89" length="0.28" shape="1129.98,1097.03 1130.03,1097.15 1130.06,1097.23 1130.09,1097.31 1130.13,1097.43"/>
    </edge>
    <edge id=":1136079423_0" function="internal">
        <lane id=":1136079423_0_0" index="0" allow="pedestrian bicycle" speed="2.78" length="6.64" width="2.00" shape="425.48,856.30 425.53,858.25 425.35,859.58 424.93,860.89 424.29,862.75"/>
    </edge>
    <edge id=":1152549950_0" function="internal">
        <lane id=":1152549950_0_0" index="0" allow="bicycle" speed="8.33" length="0.10" width="1.00" shape="1144.75,1136.12 1144.74,1136.07"/>
    </edge>
    <edge id=":1152549950_1" function="internal">
        <lane id=":1152549950_1_0" index="0" allow="bicycle" speed="8.33" length="0.10" width="1.00" shape="1143.76,1136.26 1143.75,1136.21"/>
    </edge>
    <edge id=":1153076902_0" function="internal">
        <lane id=":1153076902_0_0" index="0" allow="bicycle" speed="4.43" length="3.55" width="1.00" shape="1110.33,1034.91 1109.28,1034.87 1108.50,1034.56 1107.98,1033.98 1107.74,1033.13"/>
    </edge>
    <edge id=":1153076902_1" function="internal">
        <lane id=":1153076902_1_0" index="0" disallow="tram rail_urban rail rail_electric rail_fast ship" speed="13.89" length="5.62" shape="1110.42,1036.00 1104.92,1036.28"/>
        <lane id=":1153076902_1_1" index="1" disallow="tram rail_urban rail rail_electric rail_fast ship" speed="13.89" length="5.62" shape="1110.69,1039.19 1104.97,1039.48"/>
    </edge>
    <edge id=":1153076902_3" function="internal">
        <lane id=":1153076902_3_0" index="0" allow="bicycle" speed="5.86" length="3.69" width="1.00" shape="1110.79,1040.29 1110.10,1040.48 1109.42,1040.93 1108.75,1041.64 1108.08,1042.62"/>
    </edge>
    <edge id=":1153076902_4" function="internal">
        <lane id=":1153076902_4_0" index="0" allow="bicycle" speed="8.33" length="9.43" width="1.00" shape="1109.11,1042.46 1107.74,1033.13"/>
    </edge>
    <edge id=":1153076902_5" function="internal">
        <lane id=":1153076902_5_0" index="0" disallow="tram rail_urban rail rail_electric rail_fast ship" speed="5.68" length="3.21" shape="1109.11,1042.46 1108.57,1040.66 1107.82,1039.56"/>
    </edge>
    <edge id=":1153076902_6" function="internal">
        <lane id=":1153076902_6_0" index="0" allow="bicycle" speed="2.30" length="0.77" width="1.00" shape="1109.11,1042.46 1108.80,1042.11 1108.52,1042.02"/>
    </edge>
    <edge id=":1153076902_10" function="internal">
        <lane id=":1153076902_10_0" index="0" disallow="tram rail_urban rail rail_electric rail_fast ship" speed="5.68" length="3.20" shape="1107.82,1039.56 1107.69,1039.37 1106.49,1038.62 1104.96,1038.38"/>
    </edge>
    <edge id=":1153076902_11" function="internal">
        <lane id=":1153076902_11_0" index="0" allow="bicycle" speed="2.30" length="0.77" width="1.00" shape="1108.52,1042.02 1108.28,1042.19 1108.08,1042.62"/>
    </edge>
    <edge id=":1153076902_7" function="internal">
        <lane id=":1153076902_7_0" index="0" disallow="tram rail_urban rail rail_electric rail_fast ship" speed="3.69" length="3.12" shape="1106.75,1033.24 1106.71,1034.08 1106.39,1034.68 1105.79,1035.05 1104.91,1035.18"/>
    </edge>
    <edge id=":1153076902_8" function="internal">
        <lane id=":1153076902_8_0" index="0" allow="bicycle" speed="8.33" length="9.92" width="1.00" shape="1106.75,1033.24 1107.52,1036.12 1108.52,1038.18 1108.98,1040.11 1108.08,1042.62"/>
    </edge>
    <edge id=":1153076902_9" function="internal">
        <lane id=":1153076902_9_0" index="0" allow="bicycle" speed="2.04" length="0.73" width="1.00" shape="1106.75,1033.24 1107.04,1033.59 1107.30,1033.68"/>
    </edge>
    <edge id=":1153076902_12" function="internal">
        <lane id=":1153076902_12_0" index="0" allow="bicycle" speed="2.04" length="0.73" width="1.00" shape="1107.30,1033.68 1107.53,1033.53 1107.74,1033.13"/>
    </edge>
    <edge id=":1153076905_0" function="internal">
        <lane id=":1153076905_0_0" index="0" allow="bicycle" speed="8.33" length="4.75" width="1.00" shape="1108.89,1022.32 1107.48,1022.25 1106.52,1022.16 1105.57,1021.99 1104.20,1021.66"/>
    </edge>
    <edge id=":1153076905_1" function="internal">
        <lane id=":1153076905_1_0" index="0" allow="bicycle" speed="4.16" length="4.18" width="1.00" shape="1108.89,1022.32 1107.49,1022.38 1106.52,1022.73 1105.98,1023.36 1105.86,1024.27"/>
    </edge>
    <edge id=":1153076905_2" function="internal">
        <lane id=":1153076905_2_0" index="0" allow="bicycle" speed="2.04" length="1.46" width="1.00" shape="1108.89,1022.32 1108.50,1022.55 1108.36,1022.79 1108.48,1023.05 1108.84,1023.32"/>
    </edge>
    <edge id=":1153076905_3" function="internal">
        <lane id=":1153076905_3_0" index="0" allow="bicycle" speed="3.30" length="2.50" width="1.00" shape="1106.85,1024.18 1106.99,1023.62 1107.44,1023.36 1108.09,1023.29 1108.84,1023.32"/>
    </edge>
    <edge id=":1153076905_4" function="internal">
        <lane id=":1153076905_4_0" index="0" allow="bicycle" speed="4.85" length="3.92" width="1.00" shape="1106.85,1024.18 1106.62,1023.31 1106.11,1022.61 1105.30,1022.06 1104.20,1021.66"/>
    </edge>
    <edge id=":1153076905_5" function="internal">
        <lane id=":1153076905_5_0" index="0" allow="bicycle" speed="2.04" length="1.46" width="1.00" shape="1106.85,1024.18 1106.57,1023.83 1106.31,1023.73 1106.07,1023.87 1105.86,1024.27"/>
    </edge>
    <edge id=":1153076905_6" function="internal">
        <lane id=":1153076905_6_0" index="0" allow="bicycle" speed="4.06" length="2.68" width="1.00" shape="1103.95,1022.63 1104.75,1022.90 1105.33,1023.27 1105.70,1023.72 1105.86,1024.27"/>
    </edge>
    <edge id=":1153076905_7" function="internal">
        <lane id=":1153076905_7_0" index="0" allow="bicycle" speed="8.33" length="4.95" width="1.00" shape="1103.95,1022.63 1105.38,1022.98 1106.37,1023.16 1107.37,1023.24 1108.84,1023.32"/>
    </edge>
    <edge id=":1153076905_8" function="internal">
        <lane id=":1153076905_8_0" index="0" allow="bicycle" speed="2.04" length="1.46" width="1.00" shape="1103.95,1022.63 1104.38,1022.48 1104.56,1022.27 1104.50,1022.00 1104.20,1021.66"/>
    </edge>
    <edge id=":1153076929_0" function="internal">
        <lane id=":1153076929_0_0" index="0" allow="bicycle" speed="3.64" length="3.21" width="1.00" shape="1106.33,1045.50 1105.75,1046.20 1105.12,1046.50 1104.42,1046.40 1103.67,1045.90"/>
    </edge>
    <edge id=":1153076929_1" function="internal">
        <lane id=":1153076929_1_0" index="0" allow="bicycle" speed="8.33" length="3.81" width="1.00" shape="1106.33,1045.50 1105.76,1046.48 1105.36,1047.15 1104.89,1047.76 1104.10,1048.56"/>
    </edge>
    <edge id=":1153076929_2" function="internal">
        <lane id=":1153076929_2_0" index="0" allow="bicycle" speed="6.05" length="5.42" width="1.00" shape="1106.33,1045.50 1105.75,1046.79 1105.56,1048.07 1105.77,1049.35 1106.38,1050.62"/>
    </edge>
    <edge id=":1153076929_3" function="internal">
        <lane id=":1153076929_3_0" index="0" allow="bicycle" speed="2.04" length="1.46" width="1.00" shape="1106.33,1045.50 1106.35,1045.95 1106.50,1046.19 1106.77,1046.21 1107.18,1046.02"/>
    </edge>
    <edge id=":1153076929_4" function="internal">
        <lane id=":1153076929_4_0" index="0" allow="bicycle" speed="5.42" length="4.30" width="1.00" shape="1107.22,1050.09 1106.74,1049.08 1106.57,1048.06 1106.72,1047.04 1107.18,1046.02"/>
    </edge>
    <edge id=":1153076929_5" function="internal">
        <lane id=":1153076929_5_0" index="0" allow="bicycle" speed="8.33" length="5.52" width="1.00" shape="1107.22,1050.09 1106.34,1048.71 1105.67,1047.81 1104.88,1047.00 1103.67,1045.90"/>
    </edge>
    <edge id=":1153076929_6" function="internal">
        <lane id=":1153076929_6_0" index="0" allow="bicycle" speed="4.02" length="4.02" width="1.00" shape="1107.22,1050.09 1106.36,1048.95 1105.56,1048.31 1104.80,1048.18 1104.10,1048.56"/>
    </edge>
    <edge id=":1153076929_7" function="internal">
        <lane id=":1153076929_7_0" index="0" allow="bicycle" speed="2.04" length="1.46" width="1.00" shape="1107.22,1050.09 1106.81,1049.91 1106.53,1049.93 1106.39,1050.17 1106.38,1050.62"/>
    </edge>
    <edge id=":1153076929_8" function="internal">
        <lane id=":1153076929_8_0" index="0" allow="bicycle" speed="3.23" length="2.46" width="1.00" shape="1104.70,1049.36 1105.20,1049.15 1105.61,1049.42 1105.99,1049.97 1106.38,1050.62"/>
    </edge>
    <edge id=":1153076929_9" function="internal">
        <lane id=":1153076929_9_0" index="0" allow="bicycle" speed="8.33" length="4.18" width="1.00" shape="1104.70,1049.36 1105.58,1048.49 1106.11,1047.83 1106.56,1047.09 1107.18,1046.02"/>
    </edge>
    <edge id=":1153076929_10" function="internal">
        <lane id=":1153076929_10_0" index="0" allow="bicycle" speed="4.18" length="4.11" width="1.00" shape="1104.70,1049.36 1105.16,1048.66 1105.14,1047.85 1104.64,1046.93 1103.67,1045.90"/>
    </edge>
    <edge id=":1153076929_11" function="internal">
        <lane id=":1153076929_11_0" index="0" allow="bicycle" speed="2.04" length="1.47" width="1.00" shape="1104.70,1049.36 1104.85,1048.93 1104.80,1048.65 1104.55,1048.53 1104.10,1048.56"/>
    </edge>
    <edge id=":1153076929_12" function="internal">
        <lane id=":1153076929_12_0" index="0" allow="bicycle" speed="3.36" length="2.52" width="1.00" shape="1103.00,1046.65 1103.59,1047.13 1104.11,1047.60 1104.34,1048.06 1104.10,1048.56"/>
    </edge>
    <edge id=":1153076929_13" function="internal">
        <lane id=":1153076929_13_0" index="0" allow="bicycle" speed="8.33" length="5.24" width="1.00" shape="1103.00,1046.65 1104.16,1047.69 1104.90,1048.46 1105.54,1049.32 1106.38,1050.62"/>
    </edge>
    <edge id=":1153076929_14" function="internal">
        <lane id=":1153076929_14_0" index="0" allow="bicycle" speed="4.47" length="5.05" width="1.00" shape="1103.00,1046.65 1104.19,1047.43 1105.28,1047.59 1106.28,1047.12 1107.18,1046.02"/>
    </edge>
    <edge id=":1153076929_15" function="internal">
        <lane id=":1153076929_15_0" index="0" allow="bicycle" speed="2.04" length="1.46" width="1.00" shape="1103.00,1046.65 1103.45,1046.71 1103.71,1046.61 1103.78,1046.34 1103.67,1045.90"/>
    </edge>
    <edge id=":1239794133_0" function="internal">
        <lane id=":1239794133_0_0" index="0" allow="bicycle" speed="2.04" length="1.46" width="1.00" shape="940.91,1365.74 940.58,1366.05 940.51,1366.32 940.68,1366.55 941.09,1366.72"/>
    </edge>
    <edge id=":1286263599_0" function="internal">
        <lane id=":1286263599_0_0" index="0" disallow="tram rail_urban rail rail_electric rail_fast ship" speed="4.25" length="3.48" shape="410.65,1241.23 410.70,1240.28 410.70,1239.19 410.86,1238.32 411.36,1238.07"/>
    </edge>
    <edge id=":1286263599_1" function="internal">
        <lane id=":1286263599_1_0" index="0" allow="pedestrian delivery bicycle" speed="3.65" length="4.67" shape="410.65,1241.23 410.06,1239.92 409.33,1239.39 408.48,1239.66 407.50,1240.72"/>
    </edge>
    <edge id=":1286263599_2" function="internal">
        <lane id=":1286263599_2_0" index="0" allow="pedestrian delivery bicycle" speed="5.26" length="5.32" shape="405.10,1236.65 406.35,1237.14 407.17,1237.99 407.55,1239.18 407.50,1240.72"/>
    </edge>
    <edge id=":1286263599_3" function="internal">
        <lane id=":1286263599_3_0" index="0" disallow="tram rail_urban rail rail_electric rail_fast ship" speed="8.33" length="6.42" shape="405.10,1236.65 411.36,1238.07"/>
    </edge>
    <edge id=":1286263637_0" function="internal">
        <lane id=":1286263637_0_0" index="0" disallow="tram rail_urban rail rail_electric rail_fast ship" speed="8.33" length="3.58" shape="456.78,1243.08 455.80,1243.46 455.09,1243.61 454.35,1243.66 453.29,1243.75"/>
    </edge>
    <edge id=":1286263637_1" function="internal">
        <lane id=":1286263637_1_0" index="0" disallow="tram rail_urban rail rail_electric rail_fast ship" speed="3.65" length="2.34" shape="456.78,1243.08 455.98,1244.28 455.91,1245.17"/>
    </edge>
    <edge id=":1286263637_4" function="internal">
        <lane id=":1286263637_4_0" index="0" disallow="tram rail_urban rail rail_electric rail_fast ship" speed="3.65" length="2.34" shape="455.91,1245.17 456.59,1245.76 458.00,1246.04"/>
    </edge>
    <edge id=":1286263637_2" function="internal">
        <lane id=":1286263637_2_0" index="0" disallow="tram rail_urban rail rail_electric rail_fast ship" speed="8.33" length="4.44" shape="453.69,1246.93 455.00,1246.80 455.91,1246.72 456.79,1246.52 458.00,1246.04"/>
    </edge>
    <edge id=":1286263637_3" function="internal">
        <lane id=":1286263637_3_0" index="0" disallow="tram rail_urban rail rail_electric rail_fast ship" speed="3.65" length="2.34" shape="453.69,1246.93 454.78,1245.98 455.08,1245.14"/>
    </edge>
    <edge id=":1286263637_5" function="internal">
        <lane id=":1286263637_5_0" index="0" disallow="tram rail_urban rail rail_electric rail_fast ship" speed="3.65" length="2.34" shape="455.08,1245.14 454.58,1244.40 453.29,1243.75"/>
    </edge>
    <edge id=":1320568628_0" function="internal">
        <lane id=":1320568628_0_0" index="0" disallow="tram rail_urban rail rail_electric rail_fast ship" speed="3.65" length="4.67" shape="291.03,772.77 290.19,771.60 289.38,771.23 288.59,771.65 287.83,772.88"/>
    </edge>
    <edge id=":1329882503_0" function="internal">
        <lane id=":1329882503_0_0" index="0" allow="pedestrian delivery bicycle" speed="3.65" length="4.67" shape="945.58,1197.73 944.67,1196.61 943.83,1196.29 943.07,1196.77 942.39,1198.04"/>
    </edge>
    <edge id=":1329882635_0" function="internal">
        <lane id=":1329882635_0_0" index="0" disallow="tram rail_urban rail rail_electric rail_fast ship" speed="8.33" length="0.91" shape="1081.08,1196.27 1080.81,1196.27 1080.63,1196.28 1080.44,1196.31 1080.18,1196.36"/>
    </edge>
    <edge id=":1329882635_1" function="internal">
        <lane id=":1329882635_1_0" index="0" disallow="tram rail_urban rail rail_electric rail_fast ship" speed="8.33" length="0.30" shape="1080.80,1199.50 1080.89,1199.48 1080.95,1199.47 1081.01,1199.47 1081.10,1199.47"/>
    </edge>
    <edge id=":1388945564_0" function="internal">
        <lane id=":1388945564_0_0" index="0" allow="bicycle" speed="8.33" length="7.79" width="1.00" shape="1103.95,1048.69 1098.25,1054.00"/>
    </edge>
    <edge id=":1388945564_1" function="internal">
        <lane id=":1388945564_1_0" index="0" disallow="tram rail_urban rail rail_electric rail_fast ship" speed="4.67" length="3.47" shape="1103.95,1048.69 1103.27,1049.59 1103.08,1050.58 1103.38,1051.67 1103.50,1051.84"/>
    </edge>
    <edge id=":1388945564_2" function="internal">