<?xml version="1.0" encoding="UTF-8"?>

<!-- generated on 04/11/20 18:55:30 by Eclipse SUMO netedit Version 1.3.1
<configuration xmlns:xsi="http://www.w3.org/2001/XMLSchema-instance" xsi:noNamespaceSchemaLocation="http://sumo.dlr.de/xsd/netconvertConfiguration.xsd">

    <input>
        <sumo-net-file value="C:\Users\Felix\Masterarbeit\Coding\Sumo\Files\ValidationNetwork.net.xml"/>
    </input>

    <output>
        <output-file value="C:\Users\Felix\Masterarbeit\Coding\Sumo\Files\ValidationNetwork.net.xml"/>
    </output>

    <processing>
        <geometry.max-grade.fix value="false"/>
        <offset.disable-normalization value="true"/>
        <opposites.guess.fix-lengths value="true"/>
        <lefthand value="false"/>
    </processing>

    <junctions>
        <no-turnarounds value="true"/>
        <junctions.corner-detail value="5"/>
        <junctions.limit-turn-speed value="5.5"/>
        <rectangular-lane-cut value="false"/>
    </junctions>

    <pedestrian>
        <walkingareas value="false"/>
    </pedestrian>

</configuration>
-->

<net version="1.3" junctionCornerDetail="5" limitTurnSpeed="5.50" xmlns:xsi="http://www.w3.org/2001/XMLSchema-instance" xsi:noNamespaceSchemaLocation="http://sumo.dlr.de/xsd/net_file.xsd">

    <location netOffset="0.00,0.00" convBoundary="90.64,45.82,3315.97,2503.48" origBoundary="-10000000000.00,-10000000000.00,10000000000.00,10000000000.00" projParameter="!"/>

    <edge id=":gneJ0_0" function="internal">
        <lane id=":gneJ0_0_0" index="0" speed="13.89" length="0.33" width="3.30" shape="2696.91,217.67 2696.56,217.67"/>
        <lane id=":gneJ0_0_1" index="1" speed="13.89" length="0.33" width="3.30" shape="2696.93,214.37 2696.61,214.37"/>
    </edge>
    <edge id=":gneJ0_2" function="internal">
        <lane id=":gneJ0_2_0" index="0" speed="13.89" length="0.25" width="3.30" shape="2696.73,207.77 2696.96,207.77"/>
        <lane id=":gneJ0_2_1" index="1" speed="13.89" length="0.25" width="3.30" shape="2696.67,211.07 2696.94,211.07"/>
    </edge>
    <edge id=":gneJ1_0" function="internal">
        <lane id=":gneJ1_0_0" index="0" allow="pedestrian" speed="11.11" length="6.72" width="3.00" shape="2870.09,220.44 2868.10,220.64 2866.76,221.08 2865.43,221.52 2863.44,221.71"/>
        <lane id=":gneJ1_0_1" index="1" speed="11.11" length="6.72" width="3.30" shape="2870.09,215.29 2863.47,215.26"/>
    </edge>
    <edge id=":gneJ1_2" function="internal">
        <lane id=":gneJ1_2_0" index="0" speed="7.87" length="2.57" width="3.30" shape="2870.09,215.29 2868.66,214.49 2868.31,213.63"/>
    </edge>
    <edge id=":gneJ1_9" function="internal">
        <lane id=":gneJ1_9_0" index="0" speed="7.87" length="11.25" width="3.30" shape="2868.31,213.63 2867.67,212.10 2867.11,208.12 2867.00,202.55"/>
    </edge>
    <edge id=":gneJ1_3" function="internal">
        <lane id=":gneJ1_3_0" index="0" allow="pedestrian" speed="11.11" length="6.75" width="3.00" shape="2863.52,205.51 2865.50,205.73 2866.81,206.18 2868.13,206.64 2870.10,206.84"/>
    </edge>
    <edge id=":gneJ1_4" function="internal">
        <lane id=":gneJ1_4_0" index="0" speed="6.14" length="2.72" width="3.30" shape="2863.51,208.66 2865.00,208.29 2865.81,207.42"/>
    </edge>
    <edge id=":gneJ1_5" function="internal">
        <lane id=":gneJ1_5_0" index="0" speed="11.11" length="6.61" width="3.30" shape="2863.49,211.96 2870.10,211.99"/>
    </edge>
    <edge id=":gneJ1_10" function="internal">
        <lane id=":gneJ1_10_0" index="0" speed="6.14" length="5.10" width="3.30" shape="2865.81,207.42 2866.08,207.14 2866.74,205.23 2867.00,202.55"/>
    </edge>
    <edge id=":gneJ1_6" function="internal">
        <lane id=":gneJ1_6_0" index="0" speed="6.04" length="7.71" width="3.30" shape="2866.54,224.76 2866.41,222.06 2865.85,220.12 2864.86,218.96 2863.45,218.56"/>
    </edge>
    <edge id=":gneJ1_7" function="internal">
        <lane id=":gneJ1_7_0" index="0" speed="13.89" length="22.22" width="3.30" shape="2866.54,224.76 2867.00,202.55"/>
    </edge>
    <edge id=":gneJ1_8" function="internal">
        <lane id=":gneJ1_8_0" index="0" speed="8.01" length="13.92" width="3.30" shape="2866.54,224.76 2866.88,219.17 2867.59,215.18 2868.66,212.79 2870.10,211.99"/>
    </edge>
    <edge id=":gneJ13_0" function="internal">
        <lane id=":gneJ13_0_0" index="0" allow="pedestrian" speed="8.33" length="0.30" width="3.00" shape="3213.84,281.62 3213.84,281.92"/>
        <lane id=":gneJ13_0_1" index="1" disallow="all" speed="8.33" length="0.30" width="2.00" shape="3211.34,281.61 3211.34,281.91"/>
        <lane id=":gneJ13_0_2" index="2" speed="8.33" length="0.30" width="3.30" shape="3208.69,281.60 3208.69,281.90"/>
    </edge>
    <edge id=":gneJ13_3" function="internal">
        <lane id=":gneJ13_3_0" index="0" allow="pedestrian" speed="8.33" length="0.30" width="3.00" shape="3200.24,281.86 3200.24,281.56"/>
        <lane id=":gneJ13_3_1" index="1" disallow="all" speed="8.33" length="0.30" width="2.00" shape="3202.74,281.87 3202.74,281.57"/>
        <lane id=":gneJ13_3_2" index="2" speed="8.33" length="0.30" width="3.30" shape="3205.39,281.88 3205.39,281.58"/>
    </edge>
    <edge id=":gneJ14_0" function="internal">
        <lane id=":gneJ14_0_0" index="0" allow="pedestrian" speed="8.33" length="0.32" width="3.00" shape="3212.95,503.99 3212.95,504.32"/>
        <lane id=":gneJ14_0_1" index="1" disallow="all" speed="8.33" length="0.32" width="2.00" shape="3210.45,503.98 3210.45,504.30"/>
        <lane id=":gneJ14_0_2" index="2" speed="8.33" length="0.32" width="3.30" shape="3207.80,503.97 3207.80,504.27"/>
    </edge>
    <edge id=":gneJ14_3" function="internal">
        <lane id=":gneJ14_3_0" index="0" allow="pedestrian" speed="8.33" length="0.28" width="3.00" shape="3199.35,504.20 3199.35,503.93"/>
        <lane id=":gneJ14_3_1" index="1" disallow="all" speed="8.33" length="0.28" width="2.00" shape="3201.85,504.22 3201.85,503.94"/>
        <lane id=":gneJ14_3_2" index="2" speed="8.33" length="0.28" width="3.30" shape="3204.50,504.24 3204.50,503.95"/>
    </edge>
    <edge id=":gneJ15_0" function="internal">
        <lane id=":gneJ15_0_0" index="0" speed="8.33" length="11.33" width="3.30" shape="3202.70,709.32 3202.69,697.98"/>
    </edge>
    <edge id=":gneJ15_1" function="internal">
        <lane id=":gneJ15_1_0" index="0" allow="pedestrian" speed="11.11" length="10.54" width="3.00" shape="3211.14,698.06 3211.26,701.18 3211.57,703.30 3211.94,705.42 3212.20,708.53"/>
    </edge>
    <edge id=":gneJ15_2" function="internal">
        <lane id=":gneJ15_2_0" index="0" allow="bicycle" speed="11.11" length="12.16" width="2.00" shape="3206.64,698.02 3207.07,701.53 3208.08,703.84 3209.15,706.15 3209.75,709.66"/>
    </edge>
    <edge id=":gneJ15_3" function="internal">
        <lane id=":gneJ15_3_0" index="0" speed="8.33" length="11.30" width="3.30" shape="3205.99,698.02 3206.00,709.32"/>
    </edge>
    <edge id=":gneJ15_4" function="internal">
        <lane id=":gneJ15_4_0" index="0" allow="pedestrian" speed="11.11" length="11.37" width="3.00" shape="3196.14,708.38 3197.54,697.94"/>
        <lane id=":gneJ15_4_1" index="1" speed="11.11" length="11.37" width="3.30" shape="3198.56,709.54 3199.30,706.05 3200.46,703.77 3201.55,701.49 3202.04,697.98"/>
    </edge>
    <edge id=":gneJ18_0" function="internal">
        <lane id=":gneJ18_0_0" index="0" allow="bicycle" speed="13.89" length="6.64" width="2.00" shape="3207.62,885.11 3200.98,885.02"/>
    </edge>
    <edge id=":gneJ18_1" function="internal">
        <lane id=":gneJ18_1_0" index="0" speed="8.33" length="4.08" width="3.30" shape="3205.98,882.02 3205.96,886.09"/>
    </edge>
    <edge id=":gneJ18_2" function="internal">
        <lane id=":gneJ18_2_0" index="0" allow="bicycle" speed="5.42" length="5.99" width="2.00" shape="3205.33,882.02 3205.06,883.35 3204.24,884.30 3202.88,884.85 3200.98,885.02"/>
    </edge>
    <edge id=":gneJ18_3" function="internal">
        <lane id=":gneJ18_3_0" index="0" allow="bicycle" speed="13.89" length="6.63" width="2.00" shape="3201.01,883.02 3207.65,883.11"/>
    </edge>
    <edge id=":gneJ18_4" function="internal">
        <lane id=":gneJ18_4_0" index="0" speed="8.33" length="4.05" width="3.30" shape="3202.66,886.06 3202.68,882.02"/>
    </edge>
    <edge id=":gneJ18_5" function="internal">
        <lane id=":gneJ18_5_0" index="0" allow="bicycle" speed="5.42" length="5.93" width="2.00" shape="3203.31,886.07 3203.59,884.75 3204.41,883.82 3205.76,883.27 3207.65,883.11"/>
    </edge>
    <edge id=":gneJ19_0" function="internal">
        <lane id=":gneJ19_0_0" index="0" allow="pedestrian" speed="13.89" length="1.43" width="3.00" shape="3212.40,713.37 3212.42,714.76"/>
        <lane id=":gneJ19_0_1" index="1" allow="bicycle" speed="13.89" length="1.43" width="2.00" shape="3209.90,713.33 3209.92,714.80"/>
    </edge>
    <edge id=":gneJ2_0" function="internal">
        <lane id=":gneJ2_0_0" index="0" allow="pedestrian" speed="6.92" length="10.23" width="3.00" shape="3220.51,220.47 3217.71,220.91 3215.70,222.11 3214.49,224.06 3214.08,226.78"/>
    </edge>
    <edge id=":gneJ2_1" function="internal">
        <lane id=":gneJ2_1_0" index="0" disallow="all" speed="7.97" length="14.19" width="2.00" shape="3220.47,217.97 3216.59,218.58 3213.82,220.25 3212.14,222.98 3211.58,226.77"/>
    </edge>
    <edge id=":gneJ2_2" function="internal">
        <lane id=":gneJ2_2_0" index="0" speed="8.33" length="18.40" width="3.30" shape="3220.42,215.32 3215.41,216.11 3211.82,218.29 3209.66,221.83 3208.93,226.76"/>
    </edge>
    <edge id=":gneJ2_3" function="internal">
        <lane id=":gneJ2_3_0" index="0" speed="8.33" length="25.92" width="3.30" shape="3220.42,215.32 3194.50,215.56"/>
    </edge>
    <edge id=":gneJ2_4" function="internal">
        <lane id=":gneJ2_4_0" index="0" speed="8.33" length="23.60" width="3.30" shape="3220.42,215.32 3213.97,214.52 3209.40,211.84 3206.69,207.28 3205.85,200.84"/>
    </edge>
    <edge id=":gneJ2_5" function="internal">
        <lane id=":gneJ2_5_0" index="0" allow="pedestrian" speed="6.62" length="9.67" width="3.00" shape="3214.30,200.95 3214.64,203.59 3215.75,205.45 3217.63,206.55 3220.27,206.88"/>
    </edge>
    <edge id=":gneJ2_6" function="internal">
        <lane id=":gneJ2_6_0" index="0" disallow="all" speed="7.70" length="13.79" width="2.00" shape="3211.80,200.91 3212.29,204.68 3213.87,207.34 3216.55,208.91 3220.31,209.38"/>
    </edge>
    <edge id=":gneJ2_7" function="internal">
        <lane id=":gneJ2_7_0" index="0" speed="8.33" length="18.16" width="3.30" shape="3209.15,200.88 3209.79,205.84 3211.88,209.35 3215.40,211.41 3220.36,212.03"/>
    </edge>
    <edge id=":gneJ2_8" function="internal">
        <lane id=":gneJ2_8_0" index="0" speed="8.33" length="25.88" width="3.30" shape="3209.15,200.88 3208.93,226.76"/>
    </edge>
    <edge id=":gneJ2_9" function="internal">
        <lane id=":gneJ2_9_0" index="0" speed="8.33" length="23.59" width="3.30" shape="3209.15,200.88 3208.16,207.31 3205.39,211.90 3200.84,214.65 3194.50,215.56"/>
    </edge>
    <edge id=":gneJ2_10" function="internal">
        <lane id=":gneJ2_10_0" index="0" allow="pedestrian" speed="6.85" length="10.08" width="3.00" shape="3194.51,207.11 3197.19,206.72 3199.11,205.53 3200.28,203.55 3200.70,200.77"/>
    </edge>
    <edge id=":gneJ2_11" function="internal">
        <lane id=":gneJ2_11_0" index="0" disallow="all" speed="7.90" length="14.07" width="2.00" shape="3194.50,209.61 3198.27,209.06 3200.97,207.41 3202.61,204.66 3203.20,200.80"/>
    </edge>
    <edge id=":gneJ2_12" function="internal">
        <lane id=":gneJ2_12_0" index="0" speed="8.33" length="18.31" width="3.30" shape="3194.50,212.26 3199.41,211.55 3202.94,209.41 3205.08,205.84 3205.85,200.84"/>
    </edge>
    <edge id=":gneJ2_13" function="internal">
        <lane id=":gneJ2_13_0" index="0" speed="8.33" length="25.86" width="3.30" shape="3194.50,212.26 3220.36,212.03"/>
    </edge>
    <edge id=":gneJ2_14" function="internal">
        <lane id=":gneJ2_14_0" index="0" speed="8.33" length="23.34" width="3.30" shape="3194.50,212.26 3200.84,213.17 3205.35,215.89 3208.05,220.42 3208.93,226.76"/>
    </edge>
    <edge id=":gneJ2_15" function="internal">
        <lane id=":gneJ2_15_0" index="0" allow="pedestrian" speed="6.68" length="9.68" width="3.00" shape="3200.48,226.72 3200.11,224.09 3198.99,222.21 3197.12,221.09 3194.50,220.71"/>
    </edge>
    <edge id=":gneJ2_16" function="internal">
        <lane id=":gneJ2_16_0" index="0" disallow="all" speed="7.76" length="13.72" width="2.00" shape="3202.98,226.73 3202.46,223.00 3200.87,220.34 3198.22,218.74 3194.50,218.21"/>
    </edge>
    <edge id=":gneJ2_17" function="internal">
        <lane id=":gneJ2_17_0" index="0" speed="8.33" length="18.00" width="3.30" shape="3205.63,226.74 3204.95,221.85 3202.87,218.36 3199.39,216.26 3194.50,215.56"/>
    </edge>
    <edge id=":gneJ2_18" function="internal">
        <lane id=":gneJ2_18_0" index="0" speed="8.33" length="25.90" width="3.30" shape="3205.63,226.74 3205.85,200.84"/>
    </edge>
    <edge id=":gneJ2_19" function="internal">
        <lane id=":gneJ2_19_0" index="0" speed="8.33" length="23.62" width="3.30" shape="3205.63,226.74 3206.57,220.41 3209.34,215.84 3213.94,213.05 3220.36,212.03"/>
    </edge>
    <edge id=":gneJ20_0" function="internal">
        <lane id=":gneJ20_0_0" index="0" allow="pedestrian" speed="13.89" length="7.04" width="3.00" shape="3212.96,880.62 3212.92,887.67"/>
        <lane id=":gneJ20_0_1" index="1" allow="bicycle" speed="13.89" length="7.04" width="2.00" shape="3210.46,880.63 3210.43,887.64"/>
    </edge>
    <edge id=":gneJ20_2" function="internal">
        <lane id=":gneJ20_2_0" index="0" allow="bicycle" speed="5.17" length="5.76" width="2.00" shape="3210.46,880.63 3210.31,882.60 3209.83,884.01 3209.04,884.84 3207.93,885.11"/>
    </edge>
    <edge id=":gneJ20_3" function="internal">
        <lane id=":gneJ20_3_0" index="0" allow="bicycle" speed="5.19" length="5.76" width="2.00" shape="3207.95,883.11 3209.06,883.41 3209.84,884.26 3210.29,885.67 3210.43,887.64"/>
    </edge>
    <edge id=":gneJ25_0" function="internal">
        <lane id=":gneJ25_0_0" index="0" allow="bicycle" speed="13.89" length="8.01" width="2.00" shape="3199.73,884.99 3191.72,884.94"/>
    </edge>
    <edge id=":gneJ25_1" function="internal">
        <lane id=":gneJ25_1_0" index="0" allow="bicycle" speed="5.21" length="5.75" width="2.00" shape="3199.73,884.99 3198.64,884.70 3197.86,883.84 3197.40,882.43 3197.25,880.46"/>
    </edge>
    <edge id=":gneJ25_2" function="internal">
        <lane id=":gneJ25_2_0" index="0" allow="bicycle" speed="5.54" length="6.64" width="2.00" shape="3191.73,882.94 3194.14,882.79 3195.86,882.33 3196.90,881.56 3197.25,880.46"/>
    </edge>
    <edge id=":gneJ25_3" function="internal">
        <lane id=":gneJ25_3_0" index="0" allow="bicycle" speed="13.89" length="8.03" width="2.00" shape="3191.73,882.94 3199.77,883.00"/>
    </edge>
    <edge id=":gneJ25_4" function="internal">
        <lane id=":gneJ25_4_0" index="0" allow="pedestrian" speed="13.89" length="7.01" width="3.00" shape="3194.71,887.45 3194.75,880.45"/>
    </edge>
    <edge id=":gneJ25_5" function="internal">
        <lane id=":gneJ25_5_0" index="0" allow="bicycle" speed="5.53" length="1.97" width="2.00" shape="3197.21,887.47 3196.87,886.37 3196.22,885.87"/>
    </edge>
    <edge id=":gneJ25_6" function="internal">
        <lane id=":gneJ25_6_0" index="0" allow="bicycle" speed="13.89" length="7.00" width="2.00" shape="3197.21,887.47 3197.25,880.46"/>
    </edge>
    <edge id=":gneJ25_7" function="internal">
        <lane id=":gneJ25_7_0" index="0" allow="bicycle" speed="5.17" length="5.76" width="2.00" shape="3197.21,887.47 3197.38,885.50 3197.86,884.09 3198.66,883.26 3199.77,883.00"/>
    </edge>
    <edge id=":gneJ25_8" function="internal">
        <lane id=":gneJ25_8_0" index="0" allow="bicycle" speed="5.53" length="4.66" width="2.00" shape="3196.22,885.87 3195.85,885.58 3194.13,885.11 3191.72,884.94"/>
    </edge>
    <edge id=":gneJ26_0" function="internal">
        <lane id=":gneJ26_0_0" index="0" allow="pedestrian" speed="13.89" length="3.17" width="3.00" shape="3195.79,715.57 3195.82,712.30"/>
        <lane id=":gneJ26_0_1" index="1" allow="bicycle" speed="13.89" length="3.17" width="2.00" shape="3198.29,715.58 3198.31,712.51"/>
    </edge>
    <edge id=":gneJ27_0" function="internal">
        <lane id=":gneJ27_0_0" index="0" allow="pedestrian" speed="8.33" length="10.35" width="3.00" shape="2869.16,887.45 2869.26,877.09"/>
    </edge>
    <edge id=":gneJ27_1" function="internal">
        <lane id=":gneJ27_1_0" index="0" allow="bicycle" speed="6.56" length="9.08" width="2.00" shape="2871.66,887.43 2871.21,885.64 2869.89,884.35 2867.71,883.57 2864.65,883.30"/>
    </edge>
    <edge id=":gneJ27_2" function="internal">
        <lane id=":gneJ27_2_0" index="0" speed="8.33" length="10.25" width="3.30" shape="2872.31,887.43 2872.41,877.18"/>
    </edge>
    <edge id=":gneJ27_3" function="internal">
        <lane id=":gneJ27_3_0" index="0" allow="bicycle" speed="7.77" length="13.40" width="2.00" shape="2872.96,887.42 2873.59,884.77 2875.52,882.88 2878.75,881.75 2883.28,881.40"/>
    </edge>
    <edge id=":gneJ27_4" function="internal">
        <lane id=":gneJ27_4_0" index="0" speed="6.36" length="9.04" width="3.30" shape="2883.27,883.40 2880.20,883.63 2878.00,884.38 2876.69,885.64 2876.26,887.40"/>
    </edge>
    <edge id=":gneJ27_5" function="internal">
        <lane id=":gneJ27_5_0" index="0" allow="bicycle" speed="13.89" length="18.63" width="2.00" shape="2883.27,883.40 2864.65,883.30"/>
    </edge>
    <edge id=":gneJ27_6" function="internal">
        <lane id=":gneJ27_6_0" index="0" speed="7.94" length="8.77" width="3.30" shape="2883.27,883.40 2878.18,882.99 2874.70,881.85"/>
    </edge>
    <edge id=":gneJ27_14" function="internal">
        <lane id=":gneJ27_14_0" index="0" speed="7.94" length="5.82" width="3.30" shape="2874.70,881.85 2874.56,881.81 2872.42,879.87 2871.76,877.16"/>
    </edge>
    <edge id=":gneJ27_7" function="internal">
        <lane id=":gneJ27_7_0" index="0" allow="pedestrian" speed="8.33" length="10.05" width="3.00" shape="2878.87,877.34 2878.76,887.39"/>
    </edge>
    <edge id=":gneJ27_8" function="internal">
        <lane id=":gneJ27_8_0" index="0" allow="bicycle" speed="6.47" length="9.03" width="2.00" shape="2876.37,877.28 2876.76,879.07 2878.04,880.35 2880.22,881.13 2883.28,881.40"/>
    </edge>
    <edge id=":gneJ27_9" function="internal">
        <lane id=":gneJ27_9_0" index="0" speed="8.33" length="10.15" width="3.30" shape="2875.72,877.26 2875.61,887.41"/>
    </edge>
    <edge id=":gneJ27_10" function="internal">
        <lane id=":gneJ27_10_0" index="0" allow="bicycle" speed="7.87" length="13.44" width="2.00" shape="2875.07,877.24 2874.36,879.91 2872.38,881.81 2869.14,882.94 2864.65,883.30"/>
    </edge>
    <edge id=":gneJ27_11" function="internal">
        <lane id=":gneJ27_11_0" index="0" speed="6.47" length="9.18" width="3.30" shape="2864.66,881.30 2867.73,881.06 2869.93,880.28 2871.28,878.99 2871.76,877.16"/>
    </edge>
    <edge id=":gneJ27_12" function="internal">
        <lane id=":gneJ27_12_0" index="0" allow="bicycle" speed="13.89" length="18.63" width="2.00" shape="2864.66,881.30 2883.28,881.40"/>
    </edge>
    <edge id=":gneJ27_13" function="internal">
        <lane id=":gneJ27_13_0" index="0" speed="8.02" length="8.75" width="3.30" shape="2864.66,881.30 2869.72,881.71 2873.22,882.82"/>
    </edge>
    <edge id=":gneJ27_15" function="internal">
        <lane id=":gneJ27_15_0" index="0" speed="8.02" length="5.77" width="3.30" shape="2873.22,882.82 2873.34,882.86 2875.52,884.76 2876.26,887.40"/>
    </edge>
    <edge id=":gneJ30_0" function="internal">
        <lane id=":gneJ30_0_0" index="0" allow="bicycle" speed="13.89" length="3.05" width="2.00" shape="2665.83,882.24 2662.78,882.06"/>
    </edge>
    <edge id=":gneJ30_1" function="internal">
        <lane id=":gneJ30_1_0" index="0" allow="bicycle" speed="13.89" length="2.97" width="2.00" shape="2662.98,879.53 2663.82,879.79 2664.39,880.02 2664.97,880.18 2665.84,880.24"/>
    </edge>
    <edge id=":gneJ32_0" function="internal">
        <lane id=":gneJ32_0_0" index="0" allow="bicycle" speed="11.11" length="23.68" width="2.00" shape="2638.69,880.46 2615.01,880.64"/>
    </edge>
    <edge id=":gneJ32_1" function="internal">
        <lane id=":gneJ32_1_0" index="0" allow="pedestrian" speed="11.11" length="27.15" width="4.00" shape="2640.66,872.23 2636.03,877.24 2630.21,880.82 2623.21,882.95 2615.01,883.64"/>
        <lane id=":gneJ32_1_1" index="1" speed="11.11" length="27.15" width="3.30" shape="2638.08,870.43 2634.63,873.76 2629.63,876.13 2623.10,877.54 2615.02,877.99"/>
    </edge>
    <edge id=":gneJ32_3" function="internal">
        <lane id=":gneJ32_3_0" index="0" allow="pedestrian" speed="11.11" length="19.40" width="3.00" shape="2615.05,869.54 2620.05,869.55 2623.53,869.22 2626.77,868.04 2631.03,865.52"/>
        <lane id=":gneJ32_3_1" index="1" allow="bicycle" speed="11.11" length="19.40" width="2.00" shape="2615.04,872.04 2621.63,871.75 2626.85,870.81 2630.70,869.23 2633.18,867.01"/>
        <lane id=":gneJ32_3_2" index="2" speed="11.11" length="19.40" width="3.30" shape="2615.03,874.69 2622.27,874.33 2628.07,873.18 2632.43,871.24 2635.35,868.53"/>
    </edge>
    <edge id=":gneJ33_0" function="internal">
        <lane id=":gneJ33_0_0" index="0" allow="pedestrian" speed="8.33" length="10.10" width="4.00" shape="2085.48,882.11 2075.44,882.06"/>
        <lane id=":gneJ33_0_1" index="1" speed="8.33" length="10.10" width="3.30" shape="2085.49,879.11 2082.49,878.79 2080.49,878.10 2078.48,877.40 2075.48,877.06"/>
        <lane id=":gneJ33_0_2" index="2" speed="8.33" length="10.10" width="3.30" shape="2085.49,876.46 2075.49,876.41"/>
    </edge>
    <edge id=":gneJ33_3" function="internal">
        <lane id=":gneJ33_3_0" index="0" allow="pedestrian" speed="8.33" length="10.07" width="3.00" shape="2075.56,867.46 2085.52,868.01"/>
        <lane id=":gneJ33_3_1" index="1" allow="bicycle" speed="8.33" length="10.07" width="2.00" shape="2075.52,872.46 2078.51,872.17 2080.52,871.50 2082.52,870.82 2085.51,870.51"/>
        <lane id=":gneJ33_3_2" index="2" speed="8.33" length="10.07" width="3.30" shape="2075.51,873.11 2085.50,873.16"/>
    </edge>
    <edge id=":gneJ34_0" function="internal">
        <lane id=":gneJ34_0_0" index="0" allow="pedestrian" speed="11.11" length="10.19" width="3.00" shape="2648.38,863.60 2647.35,866.21 2645.74,867.52 2643.77,868.68 2641.65,870.83"/>
    </edge>
    <edge id=":gneJ34_1" function="internal">
        <lane id=":gneJ34_1_0" index="0" allow="bicycle" speed="9.22" length="2.42" width="2.00" shape="2645.43,863.05 2645.55,864.33 2646.00,865.37"/>
    </edge>
    <edge id=":gneJ34_2" function="internal">
        <lane id=":gneJ34_2_0" index="0" speed="11.11" length="7.58" width="3.30" shape="2642.83,862.57 2642.25,864.70 2641.50,866.03 2640.47,867.24 2639.07,869.02"/>
    </edge>
    <edge id=":gneJ34_7" function="internal">
        <lane id=":gneJ34_7_0" index="0" allow="bicycle" speed="9.22" length="6.60" width="2.00" shape="2646.00,865.37 2646.29,866.05 2647.67,868.22 2649.66,870.84"/>
    </edge>
    <edge id=":gneJ34_3" function="internal">
        <lane id=":gneJ34_3_0" index="0" allow="pedestrian" speed="11.11" length="4.41" width="4.00" shape="2632.14,864.15 2632.84,863.26 2633.36,862.66 2633.74,862.00 2634.02,860.95"/>
        <lane id=":gneJ34_3_1" index="1" allow="bicycle" speed="11.11" length="4.41" width="2.00" shape="2634.19,865.58 2635.16,864.43 2635.95,863.69 2636.55,862.87 2636.97,861.49"/>
    </edge>
    <edge id=":gneJ34_5" function="internal">
        <lane id=":gneJ34_5_0" index="0" allow="bicycle" speed="8.41" length="19.57" width="2.00" shape="2634.26,865.64 2636.88,863.18 2640.07,863.72 2645.05,864.93 2647.51,866.97 2649.66,870.84"/>
    </edge>
    <edge id=":gneJ34_6" function="internal">
        <lane id=":gneJ34_6_0" index="0" speed="11.11" length="6.17" width="3.30" shape="2636.36,867.11 2637.52,865.68 2638.42,864.73 2639.09,863.69 2639.58,861.97"/>
    </edge>
    <edge id=":gneJ37_0" function="internal">
        <lane id=":gneJ37_0_0" index="0" allow="pedestrian" speed="6.93" length="10.16" shape="1776.04,879.72 1773.37,880.11 1771.45,881.31 1770.30,883.34 1769.91,886.18"/>
    </edge>
    <edge id=":gneJ37_1" function="internal">
        <lane id=":gneJ37_1_0" index="0" disallow="all" speed="8.02" length="14.70" width="2.00" shape="1776.06,876.72 1772.25,877.29 1769.51,879.05 1767.87,882.01 1767.31,886.18"/>
    </edge>
    <edge id=":gneJ37_2" function="internal">
        <lane id=":gneJ37_2_0" index="0" speed="9.17" length="18.99" width="3.30" shape="1776.09,874.07 1771.10,874.79 1767.54,877.05 1765.39,880.84 1764.66,886.17"/>
    </edge>
    <edge id=":gneJ37_3" function="internal">
        <lane id=":gneJ37_3_0" index="0" speed="8.33" length="26.33" width="3.30" shape="1776.09,874.07 1749.76,873.67"/>
    </edge>
    <edge id=":gneJ37_4" function="internal">
        <lane id=":gneJ37_4_0" index="0" speed="8.33" length="24.27" width="3.30" shape="1776.09,874.07 1769.66,873.07 1765.05,870.16 1762.27,865.36 1761.31,858.65"/>
    </edge>
    <edge id=":gneJ37_5" function="internal">
        <lane id=":gneJ37_5_0" index="0" allow="pedestrian" speed="6.94" length="10.31" width="4.00" shape="1769.86,858.60 1770.27,861.43 1771.46,863.47 1773.42,864.70 1776.16,865.12"/>
    </edge>
    <edge id=":gneJ37_6" function="internal">
        <lane id=":gneJ37_6_0" index="0" disallow="all" speed="8.10" length="14.78" width="2.00" shape="1767.26,858.61 1767.84,862.75 1769.51,865.71 1772.27,867.50 1776.13,868.12"/>
    </edge>
    <edge id=":gneJ37_7" function="internal">
        <lane id=":gneJ37_7_0" index="0" speed="9.23" length="19.01" width="3.30" shape="1764.61,858.63 1765.36,863.91 1767.53,867.69 1771.11,869.98 1776.11,870.77"/>
    </edge>
    <edge id=":gneJ37_8" function="internal">
        <lane id=":gneJ37_8_0" index="0" speed="18.00" length="27.54" width="3.30" shape="1764.61,858.63 1764.66,886.17"/>
    </edge>
    <edge id=":gneJ37_9" function="internal">
        <lane id=":gneJ37_9_0" index="0" speed="10.21" length="24.26" width="3.30" shape="1764.61,858.63 1763.72,865.34 1760.95,870.08 1756.30,872.85 1749.76,873.67"/>
    </edge>
    <edge id=":gneJ37_10" function="internal">
        <lane id=":gneJ37_10_0" index="0" allow="pedestrian" speed="6.80" length="10.18" shape="1749.96,865.12 1752.64,864.77 1754.56,863.58 1755.70,861.55 1756.06,858.69"/>
    </edge>
    <edge id=":gneJ37_11" function="internal">
        <lane id=":gneJ37_11_0" index="0" disallow="all" speed="7.88" length="14.46" width="2.00" shape="1749.90,867.72 1753.75,867.23 1756.50,865.56 1758.14,862.70 1758.66,858.67"/>
    </edge>
    <edge id=":gneJ37_12" function="internal">
        <lane id=":gneJ37_12_0" index="0" speed="8.33" length="18.82" width="3.30" shape="1749.84,870.37 1754.89,869.73 1758.48,867.57 1760.62,863.88 1761.31,858.65"/>
    </edge>
    <edge id=":gneJ37_13" function="internal">
        <lane id=":gneJ37_13_0" index="0" speed="8.33" length="26.28" width="3.30" shape="1749.84,870.37 1776.11,870.77"/>
    </edge>
    <edge id=":gneJ37_14" function="internal">
        <lane id=":gneJ37_14_0" index="0" speed="10.47" length="24.60" width="3.30" shape="1749.84,870.37 1756.34,871.48 1760.98,874.49 1763.75,879.38 1764.66,886.17"/>
    </edge>
    <edge id=":gneJ37_15" function="internal">
        <lane id=":gneJ37_15_0" index="0" allow="pedestrian" speed="7.17" length="11.01" shape="1756.11,886.15 1755.72,883.04 1754.50,880.80 1752.48,879.42 1749.64,878.91"/>
    </edge>
    <edge id=":gneJ37_16" function="internal">
        <lane id=":gneJ37_16_0" index="0" disallow="all" speed="8.21" length="15.14" width="2.00" shape="1758.71,886.15 1758.16,881.93 1756.47,878.88 1753.65,877.01 1749.70,876.31"/>
    </edge>
    <edge id=":gneJ37_17" function="internal">
        <lane id=":gneJ37_17_0" index="0" speed="8.33" length="19.35" width="3.30" shape="1761.36,886.16 1760.65,880.79 1758.48,876.92 1754.85,874.55 1749.76,873.67"/>
    </edge>
    <edge id=":gneJ37_18" function="internal">
        <lane id=":gneJ37_18_0" index="0" speed="8.33" length="27.51" width="3.30" shape="1761.36,886.16 1761.31,858.65"/>
    </edge>
    <edge id=":gneJ37_19" function="internal">
        <lane id=":gneJ37_19_0" index="0" speed="8.33" length="24.33" width="3.30" shape="1761.36,886.16 1762.30,879.38 1765.07,874.56 1769.67,871.69 1776.11,870.77"/>
    </edge>
    <edge id=":gneJ39_0" function="internal">
        <lane id=":gneJ39_0_0" index="0" allow="pedestrian" speed="8.33" length="3.35" shape="1768.33,1492.97 1768.05,1493.94 1767.43,1494.49 1766.80,1495.04 1766.51,1496.01"/>
        <lane id=":gneJ39_0_1" index="1" speed="13.16" length="3.35" width="3.50" shape="1763.08,1492.96 1763.16,1495.97"/>
    </edge>
    <edge id=":gneJ39_2" function="internal">
        <lane id=":gneJ39_2_0" index="0" allow="pedestrian" speed="8.33" length="3.21" shape="1756.31,1495.88 1754.53,1492.93"/>
        <lane id=":gneJ39_2_1" index="1" speed="8.33" length="3.21" width="3.30" shape="1759.66,1495.93 1759.78,1492.95"/>
    </edge>
    <edge id=":gneJ40_0" function="internal">
        <lane id=":gneJ40_0_0" index="0" speed="6.86" length="9.93" shape="1603.37,878.78 1603.15,875.05 1602.54,872.36 1601.52,870.74 1600.11,870.17"/>
    </edge>
    <edge id=":gneJ40_1" function="internal">
        <lane id=":gneJ40_1_0" index="0" speed="8.33" length="20.02" shape="1603.37,878.78 1603.32,858.76"/>
    </edge>
    <edge id=":gneJ40_2" function="internal">
        <lane id=":gneJ40_2_0" index="0" speed="8.12" length="14.93" width="3.30" shape="1603.37,878.78 1603.76,873.64 1604.98,869.99 1607.02,867.82 1609.89,867.15"/>
    </edge>
    <edge id=":gneJ40_3" function="internal">